Circuit: * C:\Users\lekenot\Desktop\Teboho-Lekeno-EE-Stuff\Design\simulations\Lt spice simulation\inverter.asc

Early termination of direct N-R iteration.
Direct Newton iteration failed to find .op point.  (Use ".option noopiter" to skip.)
Starting Gmin stepping
Gmin = 10
Gmin = 1.07374
vernier = 0.5
vernier = 0.25
vernier = 0.125
vernier = 0.0625
Gmin = 1.08884
vernier = 0.03125
vernier = 0.015625
Gmin = 1.03122
vernier = 0.0078125
vernier = 0.00390625
Gmin = 0
Trouble finding operating point....skipping operating point for Transient analysis.

Date: Fri Oct 11 16:25:52 2019
Total elapsed time: 1.175 seconds.

tnom = 27
temp = 27
method = modified trap
totiter = 1729
traniter = 0
tranpoints = 1
accept = 1
rejected = 0
matrix size = 353
fillins = 428
solver = Normal

